Version 4
SHEET 1 2592 1444
WIRE 832 -768 832 -816
WIRE 1104 -768 832 -768
WIRE 1216 -768 1104 -768
WIRE 832 -720 832 -768
WIRE 1216 -704 1216 -768
WIRE 832 -624 832 -640
WIRE 896 -624 832 -624
WIRE 1216 -608 1216 -640
WIRE 832 -592 832 -624
WIRE 1104 -576 1104 -768
WIRE 1040 -528 976 -528
WIRE 640 -464 640 -512
WIRE 832 -464 832 -528
WIRE -64 -448 -64 -464
WIRE 112 -448 112 -464
WIRE 640 -400 512 -400
WIRE 896 -384 896 -624
WIRE 896 -384 640 -384
WIRE 640 -368 640 -384
WIRE 1104 -368 1104 -480
WIRE -64 -336 -64 -368
WIRE 112 -336 112 -368
WIRE 976 -304 976 -528
WIRE 976 -304 832 -304
WIRE 640 -256 640 -304
WIRE 1104 -224 1104 -288
WIRE 1312 -224 1104 -224
WIRE 512 -208 512 -400
WIRE 512 -208 384 -208
WIRE 1104 -192 1104 -224
WIRE 384 -160 384 -208
WIRE 624 -112 624 -176
WIRE 832 -112 816 -112
WIRE 1104 -96 1104 -112
WIRE 1104 -96 880 -96
WIRE 512 -48 512 -208
WIRE 624 -48 512 -48
WIRE 624 -32 544 -32
WIRE 832 -32 832 -112
WIRE 832 -32 624 -32
WIRE 624 -16 624 -32
WIRE 1104 -16 1104 -96
WIRE 1040 32 1008 32
WIRE 544 48 544 32
WIRE 592 48 544 48
WIRE 624 48 592 48
WIRE 880 48 880 -96
WIRE 880 48 816 48
WIRE 592 80 592 48
WIRE 1008 80 1008 32
WIRE 1008 80 592 80
WIRE 832 112 832 -32
WIRE 256 160 256 96
WIRE 160 176 128 176
WIRE 240 176 160 176
WIRE 384 192 384 -80
WIRE 384 192 304 192
WIRE 240 208 -272 208
WIRE 832 208 832 192
WIRE 928 208 832 208
WIRE 1040 208 928 208
WIRE 1104 208 1104 80
WIRE 1104 208 1040 208
WIRE -272 224 -272 208
WIRE 1040 256 1040 208
WIRE 256 272 256 224
WIRE 928 272 928 208
WIRE -272 304 -272 224
WIRE 1040 352 1040 320
WIRE 128 384 128 176
WIRE 192 384 128 384
WIRE 384 384 384 192
WIRE 384 384 256 384
WIRE 1312 432 1312 -224
WIRE 1312 432 1216 432
WIRE 1312 464 1312 432
WIRE 1216 480 1216 432
WIRE 1216 480 1152 480
WIRE -272 512 -272 384
WIRE 128 512 128 384
WIRE 576 512 128 512
WIRE 1024 512 656 512
WIRE 1216 512 1152 512
WIRE 1184 544 1152 544
WIRE 1216 560 1216 512
WIRE 1312 560 1312 544
WIRE 1312 560 1216 560
WIRE 1056 608 1056 576
WIRE 1088 608 1088 576
WIRE 1088 608 1056 608
WIRE 1120 608 1120 576
WIRE 1120 608 1088 608
WIRE 1184 608 1184 544
WIRE 1056 656 1056 608
WIRE 1312 656 1312 560
WIRE 1312 800 1312 720
WIRE 1328 944 1328 928
WIRE 1360 944 1328 944
WIRE 1328 976 1328 944
WIRE 1360 976 1360 944
WIRE 1440 992 1392 992
WIRE 1504 992 1440 992
WIRE 1472 1024 1392 1024
WIRE 1504 1024 1504 992
WIRE 1264 1040 1184 1040
WIRE 1456 1056 1392 1056
WIRE 1424 1088 1392 1088
WIRE 1472 1104 1472 1024
WIRE 1504 1104 1472 1104
WIRE 1456 1152 1456 1056
WIRE 1328 1200 1328 1104
WIRE 1504 1216 1504 1104
WIRE 1184 1280 1184 1040
WIRE 1296 1280 1184 1280
WIRE 1424 1280 1424 1088
WIRE 1424 1280 1376 1280
WIRE 1424 1296 1424 1280
WIRE 1424 1408 1424 1376
WIRE 1504 1424 1504 1280
WIRE 0 0 0 0
FLAG 1184 608 0
FLAG 1056 656 -V
FLAG 1088 448 +V
FLAG 1312 800 0
FLAG -272 512 0
FLAG 112 -336 0
FLAG 112 -464 -V
FLAG -64 -336 0
FLAG -64 -464 +V
FLAG 256 96 +V
FLAG 256 272 -V
FLAG 160 176 FB
FLAG -272 224 IN
FLAG 384 192 OUT
FLAG 1040 352 0
FLAG 1216 -608 0
FLAG 640 -256 +V
FLAG 640 -512 -V
FLAG 624 -176 +V
FLAG 928 272 -V
FLAG 832 -816 +V
FLAG 1504 1424 0
FLAG 1424 1408 0
FLAG 1328 1200 -V
FLAG 1328 928 +V
FLAG 1456 1152 0
FLAG 1440 992 Sense
SYMBOL res 368 -176 R0
SYMATTR InstName R1
SYMATTR Value 25
SYMBOL res 1088 -384 R0
SYMATTR InstName R2
SYMATTR Value 0.5
SYMBOL res 1088 -208 R0
SYMATTR InstName R3
SYMATTR Value 0.5
SYMBOL res 1296 448 R0
SYMATTR InstName R6
SYMATTR Value 0.105
SYMBOL Opamps\\LT1194 1088 512 M0
SYMATTR InstName U2
SYMBOL voltage -272 288 R0
WINDOW 123 0 0 Left 2
WINDOW 39 0 0 Left 2
SYMATTR InstName V1
SYMATTR Value PULSE(0 {VIN} 0.1u 1n 1n 1u)
SYMBOL voltage 112 -464 R0
WINDOW 123 0 0 Left 2
WINDOW 39 24 44 Left 2
SYMATTR SpiceLine Rser=0
SYMATTR InstName V2
SYMATTR Value -5v
SYMBOL voltage -64 -464 R0
WINDOW 123 0 0 Left 2
WINDOW 39 24 44 Left 2
SYMATTR SpiceLine Rser=0
SYMATTR InstName V3
SYMATTR Value 13.3V
SYMBOL res 672 496 R90
WINDOW 0 0 56 VBottom 2
WINDOW 3 32 56 VTop 2
SYMATTR InstName R7
SYMATTR Value 1k
SYMBOL diode 1296 656 R0
SYMATTR InstName D2
SYMATTR Value LB_W5SM-typ_TRS
SYMBOL cap 256 368 R90
WINDOW 0 0 32 VBottom 2
WINDOW 3 32 32 VTop 2
SYMATTR InstName C1
SYMATTR Value 100p
SYMBOL npn 1040 -576 R0
SYMATTR InstName Q2
SYMATTR Value 2SC5964
SYMBOL cap 1200 -704 R0
SYMATTR InstName C3
SYMATTR Value 22µ
SYMBOL cap 1024 256 R0
SYMATTR InstName C4
SYMATTR Value 22µ
SYMBOL npn 1040 -16 R0
SYMATTR InstName Q3
SYMATTR Value 2SC5964
SYMBOL Opamps\\LT1190 272 192 R0
SYMATTR InstName U3
SYMBOL ZXTD45 736 -384 M180
SYMATTR InstName X1
SYMATTR Value MCH6541
SYMATTR Prefix X
SYMBOL res 816 -736 R0
SYMATTR InstName R8
SYMATTR Value 1k
SYMBOL diode 816 -592 R0
SYMATTR InstName D3
SYMATTR Value 1N4148
SYMBOL ZXTD45 720 -32 R0
SYMATTR InstName X2
SYMATTR Value MCH6541
SYMATTR Prefix X
SYMBOL res 816 96 R0
SYMATTR InstName R9
SYMATTR Value 1k
SYMBOL cap 528 -32 R0
SYMATTR InstName C5
SYMATTR Value 2p
SYMBOL res 1488 1008 R0
SYMATTR InstName RSense1
SYMATTR Value 0.5
SYMATTR SpiceLine pwr=20
SYMBOL diode 1488 1216 R0
SYMATTR InstName D1
SYMATTR Value LB_W5SM-typ_TRS
SYMBOL Opamps\\LT1193 1328 1040 M0
SYMATTR InstName U1
SYMBOL res 1408 1280 R0
SYMATTR InstName R4
SYMATTR Value 300
SYMBOL res 1392 1264 R90
WINDOW 0 0 56 VBottom 2
WINDOW 3 32 56 VTop 2
SYMATTR InstName R5
SYMATTR Value 300
TEXT -88 -40 Left 2 !.tran 2u
TEXT -88 -160 Left 1 !.inc 2N3866.lib
TEXT -88 -192 Left 1 !.inc 2SC5964.lib
TEXT -88 -176 Left 1 !.inc LB_W5SM_TRS.lib
TEXT -88 -104 Left 1 !.params VIN=0
TEXT -88 -88 Left 1 !.step param VIN LIST 0.1 0.5 1.0 1.5
TEXT -88 -144 Left 1 !.inc MCH6541.lib
