Version 4
SHEET 1 2592 1444
WIRE 720 -768 720 -816
WIRE 960 -768 720 -768
WIRE 1104 -768 960 -768
WIRE 1216 -768 1104 -768
WIRE 720 -720 720 -768
WIRE 1216 -704 1216 -768
WIRE 960 -672 960 -768
WIRE 720 -624 720 -640
WIRE 896 -624 720 -624
WIRE 1216 -608 1216 -640
WIRE 720 -592 720 -624
WIRE 1104 -576 1104 -768
WIRE 960 -528 960 -576
WIRE 1040 -528 960 -528
WIRE -64 -448 -64 -464
WIRE 112 -448 112 -464
WIRE 720 -448 720 -528
WIRE 720 -448 688 -448
WIRE 624 -400 512 -400
WIRE 1104 -368 1104 -480
WIRE 720 -352 688 -352
WIRE -64 -336 -64 -368
WIRE 112 -336 112 -368
WIRE 720 -304 720 -352
WIRE 1104 -224 1104 -288
WIRE 1312 -224 1104 -224
WIRE 512 -208 512 -400
WIRE 512 -208 384 -208
WIRE 1104 -192 1104 -224
WIRE 384 -160 384 -208
WIRE 720 -96 720 -144
WIRE 720 -96 688 -96
WIRE 1104 -96 1104 -112
WIRE 1104 -96 880 -96
WIRE 512 -48 512 -208
WIRE 624 -48 512 -48
WIRE 880 -16 880 -96
WIRE 1104 -16 1104 -96
WIRE 720 0 688 0
WIRE 720 32 720 0
WIRE 784 32 720 32
WIRE 816 32 784 32
WIRE 1040 32 1008 32
WIRE 720 112 720 32
WIRE 784 128 784 32
WIRE 800 128 784 128
WIRE 880 128 880 80
WIRE 880 128 864 128
WIRE 1008 128 1008 32
WIRE 1008 128 880 128
WIRE 256 160 256 96
WIRE 160 176 128 176
WIRE 240 176 160 176
WIRE 384 192 384 -80
WIRE 384 192 304 192
WIRE 240 208 -272 208
WIRE 720 208 720 192
WIRE 1040 208 720 208
WIRE 1104 208 1104 80
WIRE 1104 208 1040 208
WIRE -272 224 -272 208
WIRE 1040 256 1040 208
WIRE 256 272 256 224
WIRE 720 272 720 208
WIRE -272 304 -272 224
WIRE 1040 352 1040 320
WIRE 128 384 128 176
WIRE 192 384 128 384
WIRE 384 384 384 192
WIRE 384 384 256 384
WIRE 1312 432 1312 -224
WIRE 1312 432 1216 432
WIRE 1312 464 1312 432
WIRE 1216 480 1216 432
WIRE 1216 480 1152 480
WIRE -272 512 -272 384
WIRE 128 512 128 384
WIRE 576 512 128 512
WIRE 1024 512 656 512
WIRE 1216 512 1152 512
WIRE 1184 544 1152 544
WIRE 1216 560 1216 512
WIRE 1312 560 1312 544
WIRE 1312 560 1216 560
WIRE 1056 608 1056 576
WIRE 1088 608 1088 576
WIRE 1088 608 1056 608
WIRE 1120 608 1120 576
WIRE 1120 608 1088 608
WIRE 1184 608 1184 544
WIRE 1056 656 1056 608
WIRE 1312 656 1312 560
WIRE 1312 800 1312 720
FLAG 1184 608 0
FLAG 1056 656 -V
FLAG 1088 448 +V
FLAG 1312 800 0
FLAG -272 512 0
FLAG 112 -336 0
FLAG 112 -464 -V
FLAG -64 -336 0
FLAG -64 -464 +V
FLAG 256 96 +V
FLAG 256 272 -V
FLAG 160 176 FB
FLAG -272 224 IN
FLAG 384 192 OUT
FLAG 1040 352 0
FLAG 1216 -608 0
FLAG 720 272 -V
FLAG 720 -816 +V
FLAG 720 -304 -V
FLAG 720 -144 +V
SYMBOL res 368 -176 R0
SYMATTR InstName R1
SYMATTR Value 100
SYMBOL res 1088 -384 R0
SYMATTR InstName R2
SYMATTR Value 0.5
SYMBOL res 1088 -208 R0
SYMATTR InstName R3
SYMATTR Value 0.5
SYMBOL res 1296 448 R0
SYMATTR InstName R6
SYMATTR Value 0.1
SYMBOL Opamps\\LT1194 1088 512 M0
SYMATTR InstName U2
SYMBOL voltage -272 288 R0
WINDOW 123 0 0 Left 2
WINDOW 39 0 0 Left 2
SYMATTR InstName V1
SYMATTR Value PULSE(0 {VIN} 0.5u 1n 1n 1u)
SYMBOL voltage 112 -464 R0
WINDOW 123 0 0 Left 2
WINDOW 39 24 44 Left 2
SYMATTR SpiceLine Rser=0
SYMATTR InstName V2
SYMATTR Value -2.5v
SYMBOL voltage -64 -464 R0
WINDOW 123 0 0 Left 2
WINDOW 39 24 44 Left 2
SYMATTR SpiceLine Rser=0
SYMATTR InstName V3
SYMATTR Value 13v
SYMBOL res 672 496 R90
WINDOW 0 0 56 VBottom 2
WINDOW 3 32 56 VTop 2
SYMATTR InstName R7
SYMATTR Value 1.5k
SYMBOL cap 256 368 R90
WINDOW 0 0 32 VBottom 2
WINDOW 3 32 32 VTop 2
SYMATTR InstName C1
SYMATTR Value 10p
SYMBOL npn 1040 -576 R0
SYMATTR InstName Q2
SYMATTR Value 2SC5964
SYMBOL cap 1200 -704 R0
SYMATTR InstName C3
SYMATTR Value 22µ
SYMBOL cap 1024 256 R0
SYMATTR InstName C4
SYMATTR Value 22µ
SYMBOL npn 1040 -16 R0
SYMATTR InstName Q3
SYMATTR Value 2SC5964
SYMBOL Opamps\\LT1190 272 192 R0
SYMATTR InstName U3
SYMBOL res 704 -736 R0
SYMATTR InstName R8
SYMATTR Value 1k
SYMBOL diode 704 -592 R0
SYMATTR InstName D3
SYMATTR Value 1N4148
SYMBOL res 704 96 R0
SYMATTR InstName R9
SYMATTR Value 1k
SYMBOL npn 624 -96 R0
SYMATTR InstName Q1
SYMATTR Value 2N3866
SYMBOL pnp 624 -352 M180
SYMATTR InstName Q4
SYMATTR Value CM5160
SYMBOL npn 896 -672 R0
SYMATTR InstName Q5
SYMATTR Value 2N3866
SYMBOL pnp 816 80 M180
SYMATTR InstName Q6
SYMATTR Value CM5160
SYMBOL cap 864 112 R90
WINDOW 0 0 32 VBottom 2
WINDOW 3 32 32 VTop 2
SYMATTR InstName C2
SYMATTR Value 2p
SYMBOL diode 1296 656 R0
SYMATTR InstName D1
SYMATTR Value LB_W5SM-typ_TRS
TEXT -88 -40 Left 2 !.tran 2u
TEXT -88 -160 Left 1 !.inc 2N3866.lib
TEXT -88 -192 Left 1 !.inc 2SC5964.lib
TEXT -88 -176 Left 1 !.inc LB_W5SM_TRS.lib
TEXT -88 -104 Left 1 !.params VIN=0
TEXT -88 -88 Left 1 !.step param VIN LIST 0.1 0.5 1.0 1.5
TEXT -88 -144 Left 1 !.inc MCH6541.lib
TEXT -88 -208 Left 1 !.inc CM5160.lib
