Version 4
SHEET 1 1572 1128
WIRE -768 -480 -944 -480
WIRE -688 -480 -768 -480
WIRE -672 -480 -688 -480
WIRE -352 -480 -384 -480
WIRE -256 -480 -352 -480
WIRE -160 -480 -256 -480
WIRE -768 -464 -768 -480
WIRE -256 -464 -256 -480
WIRE 16 -464 16 -480
WIRE -944 -400 -944 -480
WIRE -688 -384 -688 -480
WIRE -672 -384 -688 -384
WIRE -352 -384 -352 -400
WIRE -352 -384 -384 -384
WIRE -768 -368 -768 -400
WIRE -352 -368 -352 -384
WIRE -256 -368 -256 -400
WIRE 16 -352 16 -384
WIRE -944 -288 -944 -320
WIRE -528 -288 -528 -320
WIRE -352 -272 -352 -288
WIRE -608 -64 -1424 -64
WIRE -528 -64 -608 -64
WIRE -464 -64 -528 -64
WIRE 160 0 160 -64
WIRE -608 -32 -608 -64
WIRE -1136 80 -1184 80
WIRE -1008 80 -1072 80
WIRE -880 96 -912 96
WIRE -608 96 -608 48
WIRE -608 96 -688 96
WIRE -560 96 -608 96
WIRE -528 96 -528 -64
WIRE -304 96 -336 96
WIRE -160 96 -224 96
WIRE 160 96 160 64
WIRE -1424 144 -1424 -64
WIRE -1472 160 -2096 160
WIRE -880 160 -912 160
WIRE -560 160 -560 96
WIRE -528 160 -560 160
WIRE -1328 176 -1392 176
WIRE -1232 176 -1328 176
WIRE -1184 176 -1184 80
WIRE -1184 176 -1232 176
WIRE -1136 176 -1184 176
WIRE -1008 176 -1008 80
WIRE -1008 176 -1056 176
WIRE -912 176 -912 160
WIRE -912 176 -1008 176
WIRE -160 176 -160 96
WIRE -32 176 -160 176
WIRE 80 176 -32 176
WIRE 112 176 80 176
WIRE -1472 192 -1536 192
WIRE -912 192 -912 176
WIRE -880 192 -912 192
WIRE -528 192 -560 192
WIRE -1328 256 -1328 176
WIRE -1232 256 -1232 176
WIRE -880 256 -912 256
WIRE -608 256 -688 256
WIRE -560 256 -560 192
WIRE -560 256 -608 256
WIRE -304 256 -336 256
WIRE -160 256 -160 176
WIRE -160 256 -224 256
WIRE -2096 272 -2096 160
WIRE -608 304 -608 256
WIRE -1536 336 -1536 192
WIRE -1328 336 -1328 320
WIRE -1328 336 -1536 336
WIRE -1536 416 -1536 336
WIRE -1344 416 -1536 416
WIRE -1232 416 -1232 320
WIRE -1232 416 -1264 416
WIRE -2096 480 -2096 352
WIRE 160 480 160 192
WIRE 160 480 0 480
WIRE -1424 496 -1424 208
WIRE -608 496 -608 384
WIRE -608 496 -1424 496
WIRE -528 496 -528 256
WIRE -528 496 -608 496
WIRE -464 496 -528 496
WIRE 160 528 160 480
WIRE -1536 544 -1536 416
WIRE 0 544 0 480
WIRE 0 544 -1536 544
WIRE 160 640 160 608
WIRE -1904 656 -1968 656
WIRE -1968 704 -1968 656
WIRE -1968 880 -1968 784
FLAG 160 640 0
FLAG -2096 480 0
FLAG 16 -352 0
FLAG 160 -64 +V
IOPIN 160 -64 BiDir
FLAG -1328 176 BIAS
FLAG 80 176 GATE
FLAG 0 480 SENSE
IOPIN 0 480 Out
FLAG -944 -288 0
FLAG 16 -480 -V
IOPIN 16 -480 BiDir
FLAG -2096 160 IN
IOPIN -2096 160 In
FLAG -912 96 -V
IOPIN -912 96 BiDir
FLAG -912 256 +V
IOPIN -912 256 BiDir
FLAG -528 -288 0
FLAG -256 -368 0
FLAG -352 -272 0
FLAG -768 -368 0
FLAG -160 -480 +V
IOPIN -160 -480 BiDir
FLAG -32 176 VGate
IOPIN -32 176 Out
FLAG -464 496 -V
IOPIN -464 496 BiDir
FLAG -464 -64 +V
IOPIN -464 -64 BiDir
FLAG -1968 880 0
FLAG -1904 656 Vdummy
IOPIN -1904 656 Out
SYMBOL nmos 112 96 R0
SYMATTR InstName M1
SYMATTR Value irf510
SYMATTR Prefix X
SYMBOL res 144 512 R0
SYMATTR InstName RSense
SYMATTR Value 1
SYMATTR SpiceLine pwr=20
SYMBOL voltage -2096 256 R0
WINDOW 123 0 0 Left 2
WINDOW 39 0 0 Left 2
SYMATTR InstName V1
SYMATTR Value PULSE(0 0.5 0.5u 1n 1n 1u 2u 2)
SYMBOL voltage 16 -480 R0
WINDOW 123 0 0 Left 2
WINDOW 39 24 44 Left 2
SYMATTR SpiceLine Rser=0.01
SYMATTR InstName V3
SYMATTR Value -2.5
SYMBOL ZXTD45 -432 176 R0
SYMATTR InstName U2
SYMATTR Value ZXTD4591E6
SYMATTR Prefix X
SYMBOL LMP7707 -1408 176 M0
SYMATTR InstName X2
SYMATTR Prefix X
SYMATTR Value THS4281
SYMBOL voltage -944 -416 R0
WINDOW 123 0 0 Left 2
WINDOW 39 24 44 Left 2
SYMATTR InstName V2
SYMATTR Value 15
SYMBOL ZXTD45 -784 176 M180
SYMATTR InstName U1
SYMATTR Value ZXTD4591E6
SYMATTR Prefix X
SYMBOL res -624 -48 R0
SYMATTR InstName R5
SYMATTR Value 2.2k
SYMBOL res -624 288 R0
SYMATTR InstName R6
SYMATTR Value 2.2k
SYMBOL res -208 240 R90
WINDOW 0 0 56 VBottom 2
WINDOW 3 32 56 VTop 2
SYMATTR InstName R7
SYMATTR Value 0.5
SYMBOL res -208 80 R90
WINDOW 0 0 56 VBottom 2
WINDOW 3 32 56 VTop 2
SYMATTR InstName R8
SYMATTR Value 0.5
SYMBOL cap -272 -464 R0
WINDOW 0 41 31 Left 2
SYMATTR InstName C1
SYMATTR Value 10µ
SYMBOL res -368 -496 R0
SYMATTR InstName R2
SYMATTR Value 37.06k
SYMBOL res -368 -384 R0
SYMATTR InstName R9
SYMATTR Value 4.0k
SYMBOL cap -784 -464 R0
SYMATTR InstName C2
SYMATTR Value 1µ
SYMBOL PowerProducts\\LT1963A -528 -432 R0
SYMATTR InstName U3
SYMBOL cap -1344 256 R0
SYMATTR InstName C3
SYMATTR Value 100p
SYMBOL diode 144 0 R0
SYMATTR InstName D2
SYMATTR Value LB_W5SM-typ_TRS
SYMBOL res -1040 160 R90
WINDOW 0 0 56 VBottom 2
WINDOW 3 32 56 VTop 2
SYMATTR InstName R1
SYMATTR Value 50
SYMBOL cap -1072 64 R90
WINDOW 0 0 32 VBottom 2
WINDOW 3 32 32 VTop 2
SYMATTR InstName C5
SYMATTR Value 100p
SYMBOL cap -1248 256 R0
SYMATTR InstName C4
SYMATTR Value 6.8n
SYMBOL res -1360 432 R270
WINDOW 0 32 56 VTop 2
WINDOW 3 0 56 VBottom 2
SYMATTR InstName R4
SYMATTR Value {Rg}
SYMBOL voltage -1968 688 R0
WINDOW 123 0 0 Left 2
WINDOW 39 0 0 Left 2
SYMATTR InstName V4
SYMATTR Value SINE(0.75 0.1 1Meg 0 0 0 10)
TEXT -1816 -240 Left 2 !.tran 10u
TEXT -1816 -392 Left 1 !.inc ZXTD4591E6.lib
TEXT -1816 -360 Left 1 !.inc irf510.lib
TEXT -1816 -408 Left 1 !.inc THS4281.lib
TEXT -1816 -376 Left 1 !.inc LB_W5SM_TRS.lib
TEXT -1816 -304 Left 1 !.params VIN=0
TEXT -1816 -288 Left 1 !;.step param VIN LIST 0.2 0.2
TEXT -1816 -344 Left 1 !.model ledCable LTRA(len=1 R=0.01 L=77n C=30.8p)
TEXT -1816 -272 Left 1 !.step param Rg LIST  0.1 1e6
