Version 4
SHEET 1 1572 980
WIRE -768 -480 -944 -480
WIRE -688 -480 -768 -480
WIRE -672 -480 -688 -480
WIRE -352 -480 -384 -480
WIRE -256 -480 -352 -480
WIRE -160 -480 -256 -480
WIRE -768 -464 -768 -480
WIRE -256 -464 -256 -480
WIRE 80 -416 80 -432
WIRE -944 -400 -944 -480
WIRE -688 -384 -688 -480
WIRE -672 -384 -688 -384
WIRE -352 -384 -352 -400
WIRE -352 -384 -384 -384
WIRE -768 -368 -768 -400
WIRE -352 -368 -352 -384
WIRE -256 -368 -256 -400
WIRE 80 -304 80 -336
WIRE -944 -288 -944 -320
WIRE -528 -288 -528 -320
WIRE -352 -272 -352 -288
WIRE -528 -64 -608 -64
WIRE -464 -64 -528 -64
WIRE -608 -32 -608 -64
WIRE -1152 80 -1216 80
WIRE -1040 80 -1088 80
WIRE -880 96 -912 96
WIRE -608 96 -608 48
WIRE -608 96 -688 96
WIRE -560 96 -608 96
WIRE -528 96 -528 -64
WIRE -304 96 -336 96
WIRE -160 96 -224 96
WIRE -880 144 -1008 144
WIRE -880 160 -880 144
WIRE -560 160 -560 96
WIRE -528 160 -560 160
WIRE -1216 176 -1216 80
WIRE -1216 176 -1360 176
WIRE -1152 176 -1216 176
WIRE -1040 176 -1040 80
WIRE -1040 176 -1072 176
WIRE -1008 176 -1008 144
WIRE -1008 176 -1040 176
WIRE -160 176 -160 96
WIRE -32 176 -160 176
WIRE -528 192 -560 192
WIRE -1008 224 -1008 176
WIRE -880 224 -880 192
WIRE -880 224 -1008 224
WIRE -880 256 -912 256
WIRE -608 256 -688 256
WIRE -560 256 -560 192
WIRE -560 256 -608 256
WIRE -304 256 -336 256
WIRE -160 256 -160 176
WIRE -160 256 -224 256
WIRE -1360 272 -1360 176
WIRE -608 304 -608 256
WIRE -608 416 -608 384
WIRE -528 416 -528 256
WIRE -528 416 -608 416
WIRE -464 416 -528 416
WIRE -1360 480 -1360 352
FLAG -1360 480 0
FLAG 80 -304 0
FLAG -464 -64 +V
IOPIN -464 -64 BiDir
FLAG -944 -288 0
FLAG 80 -432 -V
IOPIN 80 -432 BiDir
FLAG -464 416 -V
IOPIN -464 416 BiDir
FLAG -1360 176 IN
IOPIN -1360 176 In
FLAG -912 96 -V
IOPIN -912 96 BiDir
FLAG -912 256 +V
IOPIN -912 256 BiDir
FLAG -528 -288 0
FLAG -256 -368 0
FLAG -352 -272 0
FLAG -768 -368 0
FLAG -160 -480 +V
IOPIN -160 -480 BiDir
FLAG -32 176 VGate
IOPIN -32 176 Out
SYMBOL voltage -1360 256 R0
WINDOW 123 0 0 Left 2
WINDOW 39 0 0 Left 2
SYMATTR InstName V1
SYMATTR Value PULSE(0 {VIN} 10n 5n 5n 50n)
SYMBOL voltage 80 -432 R0
WINDOW 123 0 0 Left 2
WINDOW 39 24 44 Left 2
SYMATTR SpiceLine Rser=0.1
SYMATTR InstName V3
SYMATTR Value -2.5
SYMBOL ZXTD45 -432 176 R0
SYMATTR InstName U2
SYMATTR Value ZXTD4591E6
SYMATTR Prefix X
SYMBOL voltage -944 -416 R0
WINDOW 123 0 0 Left 2
WINDOW 39 24 44 Left 2
SYMATTR InstName V2
SYMATTR Value 15
SYMBOL ZXTD45 -784 176 M180
SYMATTR InstName U1
SYMATTR Value ZXTD4591E6
SYMATTR Prefix X
SYMBOL res -624 -48 R0
SYMATTR InstName R5
SYMATTR Value 1k
SYMBOL res -624 288 R0
SYMATTR InstName R6
SYMATTR Value 1k
SYMBOL res -208 240 R90
WINDOW 0 0 56 VBottom 2
WINDOW 3 32 56 VTop 2
SYMATTR InstName R7
SYMATTR Value 0.5
SYMBOL res -208 80 R90
WINDOW 0 0 56 VBottom 2
WINDOW 3 32 56 VTop 2
SYMATTR InstName R8
SYMATTR Value 0.5
SYMBOL cap -272 -464 R0
WINDOW 0 41 31 Left 2
SYMATTR InstName C1
SYMATTR Value 10µ
SYMBOL res -368 -496 R0
SYMATTR InstName R2
SYMATTR Value 37.06k
SYMBOL res -368 -384 R0
SYMATTR InstName R9
SYMATTR Value 4.0k
SYMBOL cap -784 -464 R0
SYMATTR InstName C2
SYMATTR Value 1µ
SYMBOL PowerProducts\\LT1963A -528 -432 R0
SYMATTR InstName U3
SYMBOL res -1056 160 R90
WINDOW 0 0 56 VBottom 2
WINDOW 3 32 56 VTop 2
SYMATTR InstName R1
SYMATTR Value 50
SYMBOL cap -1088 64 R90
WINDOW 0 0 32 VBottom 2
WINDOW 3 32 32 VTop 2
SYMATTR InstName C3
SYMATTR Value 100p
TEXT -1816 -240 Left 2 !.tran 80n
TEXT -1816 -392 Left 1 !.inc ZXTD4591E6.lib
TEXT -1816 -360 Left 1 !.inc irf510.lib
TEXT -1816 -408 Left 1 !.inc THS4281.lib
TEXT -1816 -376 Left 1 !.inc LB_W5SM_TRS.lib
TEXT -1816 -304 Left 1 !.params VIN=0
TEXT -1816 -288 Left 1 !.step param VIN LIST 1 2 3 4 5 6 7 8 9 10
TEXT -1816 -208 Left 2 !;MEASURE TRAN tdlay TRIG i(Rsense)  VAL = 0.01 RISE = 1 TD=0.25u
TEXT -1816 -344 Left 1 !.model ledCable LTRA(len=1 R=0.01 L=77n C=30.8p)
