Version 4
SHEET 1 1572 980
WIRE -576 -192 -576 -272
WIRE -1344 -160 -1344 -176
WIRE -1168 -160 -1168 -176
WIRE -992 -160 -992 -176
WIRE -1344 -48 -1344 -80
WIRE -1168 -48 -1168 -80
WIRE -992 -48 -992 -80
WIRE -576 -48 -576 -112
WIRE -576 48 -576 16
WIRE -1344 80 -1344 48
WIRE -1344 128 -1344 80
WIRE -976 128 -1040 128
WIRE -800 128 -976 128
WIRE -672 128 -720 128
WIRE -624 128 -672 128
WIRE -1344 144 -1344 128
WIRE -1872 160 -2000 160
WIRE -1744 160 -1792 160
WIRE -1376 160 -1744 160
WIRE -1136 160 -1296 160
WIRE -672 176 -672 128
WIRE -1568 192 -1664 192
WIRE -1376 192 -1456 192
WIRE -1040 192 -1040 128
WIRE -1040 192 -1296 192
WIRE -1344 224 -1344 208
WIRE -1568 240 -1568 192
WIRE -1744 256 -1744 224
WIRE -1344 256 -1344 224
WIRE -1328 256 -1328 224
WIRE -1328 256 -1344 256
WIRE -1296 256 -1328 256
WIRE -2000 272 -2000 160
WIRE -1296 288 -1296 256
WIRE -1360 304 -1360 224
WIRE -672 304 -672 256
WIRE -576 304 -576 144
WIRE -576 304 -672 304
WIRE -1568 368 -1568 320
WIRE -1456 368 -1456 192
WIRE -1456 368 -1568 368
WIRE -1392 368 -1456 368
WIRE -1136 368 -1136 160
WIRE -1136 368 -1312 368
WIRE -576 368 -576 304
WIRE -1568 416 -1568 368
WIRE -2000 480 -2000 352
WIRE -1568 560 -1568 496
FLAG -2000 480 0
FLAG -1168 -48 0
FLAG -1168 -176 -V
FLAG -2000 160 IN
FLAG -1344 -48 0
FLAG -1344 -176 +V
FLAG -1344 80 +V
FLAG -1360 304 -V
FLAG -1568 560 0
FLAG -1664 192 +V
FLAG -992 -48 0
FLAG -992 -176 +12V
FLAG -1296 288 0
FLAG -576 368 0
FLAG -576 -272 +12v
FLAG -976 128 LED_EN
FLAG -1744 256 0
SYMBOL voltage -2000 256 R0
WINDOW 123 0 0 Left 2
WINDOW 39 0 0 Left 2
SYMATTR InstName V1
SYMATTR Value PULSE(0 0.02 1u 0.1n 0.1n 1000n)
SYMBOL voltage -1168 -176 R0
WINDOW 123 0 0 Left 2
WINDOW 39 24 44 Left 2
SYMATTR SpiceLine Rser=0
SYMATTR InstName V3
SYMATTR Value -2.5
SYMBOL voltage -1344 -176 R0
WINDOW 123 0 0 Left 2
WINDOW 39 24 44 Left 2
SYMATTR SpiceLine Rser=0.0
SYMATTR InstName V2
SYMATTR Value 5V
SYMBOL res -1584 224 R0
SYMATTR InstName R2
SYMATTR Value 100k
SYMBOL res -1584 400 R0
SYMATTR InstName R3
SYMATTR Value 100
SYMBOL res -1296 352 R90
WINDOW 0 0 56 VBottom 2
WINDOW 3 32 56 VTop 2
SYMATTR InstName R4
SYMATTR Value 100k
SYMBOL voltage -992 -176 R0
WINDOW 123 0 0 Left 2
WINDOW 39 24 44 Left 2
SYMATTR SpiceLine Rser=0
SYMATTR InstName V4
SYMATTR Value 12V
SYMBOL Comparators\\LT1711 -1344 176 R0
SYMATTR InstName U1
SYMBOL res -592 -208 R0
SYMATTR InstName R1
SYMATTR Value 1k
SYMBOL res -704 112 R90
WINDOW 0 0 56 VBottom 2
WINDOW 3 32 56 VTop 2
SYMATTR InstName R5
SYMATTR Value 1k
SYMBOL nmos -624 48 R0
SYMATTR InstName M2
SYMATTR Value SSM3K324R
SYMATTR Prefix X
SYMBOL res -688 160 R0
SYMATTR InstName R6
SYMATTR Value 100k
SYMBOL LED -592 -48 R0
SYMATTR InstName D2
SYMBOL res -1776 144 R90
WINDOW 0 0 56 VBottom 2
WINDOW 3 32 56 VTop 2
SYMATTR InstName R7
SYMATTR Value 100
SYMBOL cap -1760 160 R0
SYMATTR InstName C1
SYMATTR Value 10n
TEXT -1928 -16 Left 2 !.tran 2u
TEXT -1928 -168 Left 1 !.inc ZXTD4591E6.lib
TEXT -1928 -136 Left 1 !.inc irf510.lib
TEXT -1928 -184 Left 1 !.inc THS4281.lib
TEXT -1928 -152 Left 1 !.inc LB_W5SM_TRS.lib
TEXT -1928 16 Left 1 !.inc SSM3K324R.lib
