Version 4
SHEET 1 1576 820
WIRE 944 -768 944 -800
WIRE 944 -768 752 -768
WIRE 1312 -768 944 -768
WIRE 752 -736 752 -768
WIRE 944 -672 944 -768
WIRE 752 -624 752 -656
WIRE 880 -624 752 -624
WIRE 752 -592 752 -624
WIRE 944 -528 944 -576
WIRE 1104 -528 944 -528
WIRE -64 -448 -64 -464
WIRE 112 -448 112 -464
WIRE 752 -448 752 -528
WIRE 576 -400 512 -400
WIRE 688 -400 640 -400
WIRE 1104 -368 1104 -528
WIRE -64 -336 -64 -368
WIRE 112 -336 112 -368
WIRE 1312 -320 1312 -768
WIRE 752 -304 752 -352
WIRE 1104 -240 1104 -288
WIRE 1216 -240 1104 -240
WIRE 1264 -240 1216 -240
WIRE 512 -208 512 -400
WIRE 512 -208 384 -208
WIRE 1104 -192 1104 -240
WIRE 384 -160 384 -208
WIRE 752 -96 752 -160
WIRE 1104 -96 1104 -112
WIRE 1104 -96 944 -96
WIRE 512 -48 512 -208
WIRE 576 -48 512 -48
WIRE 688 -48 640 -48
WIRE 944 -48 944 -96
WIRE 800 0 752 0
WIRE 880 0 800 0
WIRE 752 80 752 0
WIRE 800 80 800 0
WIRE 832 80 800 80
WIRE 944 80 944 48
WIRE 944 80 896 80
WIRE 272 160 272 96
WIRE 160 176 128 176
WIRE 256 176 160 176
WIRE 320 192 304 192
WIRE 384 192 384 -80
WIRE 384 192 320 192
WIRE 256 208 -496 208
WIRE 752 208 752 160
WIRE 944 208 944 80
WIRE 944 208 752 208
WIRE -496 224 -496 208
WIRE 944 240 944 208
WIRE 272 272 272 224
WIRE -496 304 -496 224
WIRE 128 384 128 176
WIRE 192 384 128 384
WIRE 384 384 384 192
WIRE 384 384 256 384
WIRE 1200 432 1200 384
WIRE 1312 448 1312 -224
WIRE 1312 448 1248 448
WIRE 1280 464 1248 464
WIRE 1312 464 1312 448
WIRE 1040 480 1024 480
WIRE 1152 480 1040 480
WIRE 1264 496 1248 496
WIRE -496 512 -496 384
WIRE 128 512 128 384
WIRE 576 512 128 512
WIRE 1024 512 1024 480
WIRE 1024 512 656 512
WIRE 1200 560 1200 528
WIRE 1280 560 1280 464
WIRE 1312 560 1312 544
WIRE 1312 560 1280 560
WIRE 1024 592 1024 512
WIRE 1248 592 1248 512
WIRE 1248 592 1024 592
WIRE 1312 640 1312 560
WIRE 1312 656 1312 640
WIRE 1264 752 1264 496
WIRE 1312 752 1312 704
WIRE 1312 752 1264 752
WIRE 1312 800 1312 752
FLAG 944 -800 +V
FLAG 752 -304 -V
FLAG 752 -160 +V
FLAG 944 240 -V
FLAG 1312 800 0
FLAG -496 512 0
FLAG 112 -336 0
FLAG 112 -464 -V
FLAG -64 -336 0
FLAG -64 -464 +V
FLAG 272 96 +V
FLAG 272 272 -V
FLAG 160 176 FB
FLAG -496 224 IN
FLAG 1216 -240 GATE
FLAG 384 192 OUT
FLAG 1040 480 SENSE
FLAG 1200 384 +V
FLAG 1200 560 -V
SYMBOL res 368 -176 R0
SYMATTR InstName R1
SYMATTR Value 100
SYMBOL pnp 688 -352 M180
SYMATTR InstName Q5
SYMATTR Value CM5160
SYMBOL pnp 880 48 M180
SYMATTR InstName Q6
SYMATTR Value CM5160
SYMBOL res 1088 -384 R0
SYMATTR InstName R2
SYMATTR Value 0.5
SYMBOL res 1088 -208 R0
SYMATTR InstName R3
SYMATTR Value 0.5
SYMBOL cap 896 64 R90
WINDOW 0 0 32 VBottom 2
WINDOW 3 32 32 VTop 2
SYMATTR InstName C2
SYMATTR Value 2p
SYMBOL res 736 64 R0
SYMATTR InstName R4
SYMATTR Value 1k
SYMBOL res 736 -752 R0
SYMATTR InstName R5
SYMATTR Value 1k
SYMBOL diode 736 -592 R0
SYMATTR InstName D1
SYMATTR Value 1N4148
SYMBOL FerriteBead 608 -400 R90
WINDOW 0 -16 0 VBottom 2
SYMATTR InstName L1
SYMATTR Value 54n
SYMATTR SpiceLine Ipk=0.4 Rser=0.15 Rpar=70 Cpar=178f mfg="Wurth Elektronik" pn="742 792 01"
SYMBOL FerriteBead 608 -48 R90
WINDOW 0 -16 0 VBottom 2
SYMATTR InstName L2
SYMATTR Value 54n
SYMATTR SpiceLine Ipk=0.4 Rser=0.15 Rpar=70 Cpar=178f mfg="Wurth Elektronik" pn="742 792 01"
SYMBOL voltage -496 288 R0
WINDOW 123 0 0 Left 2
WINDOW 39 0 0 Left 2
SYMATTR InstName V1
SYMATTR Value PULSE(0 {VIN} 0.5u 1n 1n 1u)
SYMBOL voltage 112 -464 R0
WINDOW 123 0 0 Left 2
WINDOW 39 24 44 Left 2
SYMATTR SpiceLine Rser=0.1
SYMATTR InstName V2
SYMATTR Value -5V
SYMBOL voltage -64 -464 R0
WINDOW 123 0 0 Left 2
WINDOW 39 24 44 Left 2
SYMATTR SpiceLine Rser=0.01
SYMATTR InstName V3
SYMATTR Value 12V
SYMBOL res 672 496 R90
WINDOW 0 0 56 VBottom 2
WINDOW 3 32 56 VTop 2
SYMATTR InstName R7
SYMATTR Value 220
SYMBOL npn 688 -96 R0
SYMATTR InstName Q1
SYMATTR Value 2N3866
SYMBOL npn 880 -672 R0
SYMATTR InstName Q4
SYMATTR Value 2N3866
SYMBOL nmos 1264 -320 R0
SYMATTR InstName M1
SYMATTR Value irf510
SYMATTR Prefix X
SYMBOL cap 256 368 R90
WINDOW 0 0 32 VBottom 2
WINDOW 3 32 32 VTop 2
SYMATTR InstName C1
SYMATTR Value 22p
SYMBOL res 1296 448 R0
SYMATTR InstName RSense
SYMATTR Value 1
SYMATTR SpiceLine pwr=2
SYMBOL diode 1296 640 R0
SYMATTR InstName D3
SYMATTR Value LB_W5SM-typ_TRS
SYMBOL differential-amp 1184 480 R0
SYMATTR InstName X1
SYMATTR Prefix X
SYMATTR Value AD830J
SYMBOL Opamps\\LT1191 288 192 R0
SYMATTR InstName U1
TEXT -88 -40 Left 2 !.tran 2u
TEXT -88 -192 Left 1 !.inc ZXTD4591E6.lib
TEXT -88 -160 Left 1 !.inc 2N3866.lib
TEXT -88 -208 Left 1 !.inc THS4281.lib
TEXT -88 -176 Left 1 !.inc LB_W5SM_TRS.lib
TEXT -88 -104 Left 1 !.params VIN=0
TEXT -88 -88 Left 1 !.step param VIN LIST 0.1 0.5 1 1.5
TEXT -88 -144 Left 1 !.inc irf510.lib
TEXT -88 -128 Left 1 !.inc ad830j.lib
