Version 4
SHEET 1 1068 680
WIRE -208 -32 -320 -32
WIRE 16 -32 -208 -32
WIRE 176 -32 16 -32
WIRE 224 -32 176 -32
WIRE 336 -32 304 -32
WIRE 608 -32 336 -32
WIRE 720 -32 672 -32
WIRE 768 -32 720 -32
WIRE 912 -32 848 -32
WIRE 640 64 480 64
WIRE 912 64 912 -32
WIRE 912 64 640 64
WIRE 992 64 912 64
WIRE 176 112 176 -32
WIRE 336 112 336 -32
WIRE 480 112 480 64
WIRE 640 128 640 64
WIRE 912 128 912 64
WIRE -320 144 -320 -32
WIRE -208 176 -208 -32
WIRE 720 176 720 -32
WIRE 16 208 16 -32
WIRE 96 208 16 208
WIRE 480 208 480 192
WIRE 480 208 416 208
WIRE 640 208 640 192
WIRE 640 208 480 208
WIRE 480 224 480 208
WIRE 256 352 256 304
WIRE 720 352 720 240
WIRE 720 352 256 352
WIRE -320 384 -320 224
WIRE -208 384 -208 240
WIRE -208 384 -320 384
WIRE 256 384 256 352
WIRE 256 384 -208 384
WIRE 480 384 480 304
WIRE 480 384 256 384
WIRE 912 384 912 192
WIRE 912 384 480 384
WIRE 912 432 912 384
FLAG 912 432 0
FLAG 992 64 OUT
FLAG -320 -32 IN
SYMBOL PowerProducts\\LT1611 256 208 R0
SYMATTR InstName U1
SYMBOL cap -224 176 R0
SYMATTR InstName C1
SYMATTR Value 22µ
SYMBOL cap 672 -48 R90
WINDOW 0 0 32 VBottom 2
WINDOW 3 32 32 VTop 2
SYMATTR InstName C2
SYMATTR Value 1µ
SYMBOL cap 656 192 R180
WINDOW 0 24 56 Left 2
WINDOW 3 24 8 Left 2
SYMATTR InstName C3
SYMATTR Value 1200p
SYMBOL ind2 752 -16 R270
WINDOW 0 32 56 VTop 2
WINDOW 3 5 56 VBottom 2
SYMATTR InstName L1
SYMATTR Value 22µ
SYMATTR Type ind
SYMBOL schottky 704 176 R0
SYMATTR InstName D1
SYMBOL cap 896 128 R0
SYMATTR InstName 22u
SYMATTR Value 22µ
SYMBOL ind2 208 -16 R270
WINDOW 0 32 56 VTop 2
WINDOW 3 5 56 VBottom 2
SYMATTR InstName L2
SYMATTR Value 22µ
SYMATTR Type ind
SYMBOL res 464 96 R0
SYMATTR InstName R1
SYMATTR Value 10k
SYMBOL res 464 208 R0
SYMATTR InstName R2
SYMATTR Value 10k
SYMBOL voltage -320 128 R0
WINDOW 123 0 0 Left 2
WINDOW 39 24 124 Left 2
SYMATTR InstName V1
SYMATTR Value 3.3
SYMATTR SpiceLine Rser=0.2
TEXT -354 456 Left 2 !.tran 0 1m 0.5m
