* NAME LED:  Golden Dragon - blue
* INFORMATION: with TEMPERATUR behavior
* DATASHEET VERSION: 2012_04_20
* LIB VERSION: V1.0 2014-01-21 original version
* PLEASE REGARD THE "ReadMe and DISCLAIMER for - libraries with _TEMP.TXT" file
* AUTHOR: N.Haefner


.MODEL LB_W5SM-max_TRS D
+ IS=23.277E-21
+ N=2.8375
+ RS=1.3122
+ EG=3.3140
+ XTI=3
+ TRS1=-0.00625733698987486
+ TRS2=4.16064381750837E-06
+ CJO=1.20E-9

.MODEL LB_W5SM-typ_TRS D
+ IS=86.937E-21
+ N=2.7149
+ RS=.54813
+ EG=3.3140
+ XTI=3
+ TRS1=-0.0109417312850515
+ TRS2=9.87779593744657E-06
+ CJO=1.20E-9

.MODEL LB_W5SM-min_TRS D
+ IS=2.9679E-18
+ N=2.5923
+ RS=.18402
+ EG=3.3140
+ XTI=3
+ TRS1=-0.0133205231720672
+ TRS2=0.0000290269092799934
+ CJO=1.20E-9