Version 4
SHEET 1 1572 980
WIRE -624 -64 -1184 -64
WIRE -528 -64 -624 -64
WIRE -464 -64 -528 -64
WIRE -1584 -48 -1584 -64
WIRE -1408 -48 -1408 -64
WIRE 160 -48 160 -64
WIRE -624 -32 -624 -64
WIRE -1584 64 -1584 32
WIRE -1408 64 -1408 32
WIRE -880 96 -912 96
WIRE -624 96 -624 48
WIRE -624 96 -688 96
WIRE -560 96 -624 96
WIRE -528 96 -528 -64
WIRE -304 96 -336 96
WIRE -160 96 -224 96
WIRE 160 96 160 -48
WIRE -1184 144 -1184 -64
WIRE -1280 160 -1856 160
WIRE -1264 160 -1280 160
WIRE -1200 160 -1232 160
WIRE -880 160 -912 160
WIRE -560 160 -560 96
WIRE -528 160 -560 160
WIRE -1088 176 -1136 176
WIRE -1072 176 -1088 176
WIRE -976 176 -992 176
WIRE -912 176 -912 160
WIRE -912 176 -976 176
WIRE -160 176 -160 96
WIRE 80 176 -160 176
WIRE 112 176 80 176
WIRE -1264 192 -1264 160
WIRE -1200 192 -1264 192
WIRE -912 192 -912 176
WIRE -880 192 -912 192
WIRE -528 192 -560 192
WIRE -1232 208 -1232 160
WIRE -1232 208 -1296 208
WIRE -1088 256 -1088 176
WIRE -976 256 -976 176
WIRE -880 256 -912 256
WIRE -560 256 -560 192
WIRE -560 256 -688 256
WIRE -304 256 -336 256
WIRE -160 256 -160 176
WIRE -160 256 -224 256
WIRE -1856 272 -1856 160
WIRE -688 304 -688 256
WIRE -96 320 -96 288
WIRE -1296 352 -1296 208
WIRE -1088 352 -1088 320
WIRE -1088 352 -1296 352
WIRE -976 368 -976 336
WIRE -16 400 -16 352
WIRE -1184 416 -1184 208
WIRE -688 416 -688 384
WIRE -688 416 -1184 416
WIRE -528 416 -528 256
WIRE -528 416 -688 416
WIRE -464 416 -528 416
WIRE 160 432 160 192
WIRE 160 432 48 432
WIRE 160 448 160 432
WIRE -1296 464 -1296 352
WIRE -1008 464 -1296 464
WIRE -272 464 -928 464
WIRE -80 464 -272 464
WIRE 128 464 48 464
WIRE -1856 480 -1856 352
WIRE 64 496 48 496
WIRE 128 528 128 464
WIRE 160 528 128 528
WIRE -48 560 -48 528
WIRE -16 560 -16 528
WIRE -16 560 -48 560
WIRE 16 560 16 528
WIRE 16 560 -16 560
WIRE 64 576 64 496
WIRE -48 624 -48 560
WIRE 160 640 160 528
WIRE 160 848 160 704
FLAG 160 848 0
FLAG -1856 480 0
FLAG -1408 64 0
FLAG 160 -48 +V
FLAG -464 -64 +V
FLAG 80 176 GATE
FLAG -272 464 SENSE
FLAG -1408 -64 -V
FLAG -464 416 -V
FLAG -1280 160 IN
FLAG -96 320 0
FLAG -912 96 -V
FLAG -912 256 +V
FLAG -976 368 0
FLAG 64 576 0
FLAG -48 624 -V
FLAG -16 352 +V
FLAG -1584 64 0
FLAG -1584 -64 +V
FLAG -1296 208 FB
SYMBOL nmos 112 96 R0
SYMATTR InstName M1
SYMATTR Value irf510
SYMATTR Prefix X
SYMBOL res 144 432 R0
SYMATTR InstName RSense
SYMATTR Value 0.33
SYMATTR SpiceLine pwr=20
SYMBOL voltage -1856 256 R0
WINDOW 123 0 0 Left 2
WINDOW 39 0 0 Left 2
SYMATTR InstName V1
SYMATTR Value PULSE(0 {VIN} 0.5u 1n 1n 1u)
SYMBOL voltage -1408 -64 R0
WINDOW 123 0 0 Left 2
WINDOW 39 24 44 Left 2
SYMATTR SpiceLine Rser=0.1
SYMATTR InstName V3
SYMATTR Value -5V
SYMBOL diode 144 640 R0
SYMATTR InstName D1
SYMATTR Value LB_W5SM-typ_TRS
SYMBOL ZXTD45 -432 176 R0
SYMATTR InstName U2
SYMATTR Value ZXTD4591E6
SYMATTR Prefix X
SYMBOL res -992 240 R0
SYMATTR InstName R3
SYMATTR Value 2.2k
SYMBOL res -112 192 R0
SYMATTR InstName R4
SYMATTR Value 10k
SYMBOL ZXTD45 -784 176 M180
SYMATTR InstName U1
SYMATTR Value ZXTD4591E6
SYMATTR Prefix X
SYMBOL res -640 -48 R0
SYMATTR InstName R5
SYMATTR Value 2.2k
SYMBOL res -704 288 R0
SYMATTR InstName R6
SYMATTR Value 2.2k
SYMBOL res -208 240 R90
WINDOW 0 0 56 VBottom 2
WINDOW 3 32 56 VTop 2
SYMATTR InstName R7
SYMATTR Value 0.5
SYMBOL res -208 80 R90
WINDOW 0 0 56 VBottom 2
WINDOW 3 32 56 VTop 2
SYMATTR InstName R8
SYMATTR Value 0.5
SYMBOL Opamps\\LT1194 -16 464 M0
SYMATTR InstName U4
SYMBOL voltage -1584 -64 R0
WINDOW 123 0 0 Left 2
WINDOW 39 24 44 Left 2
SYMATTR SpiceLine Rser=0.01
SYMATTR InstName V2
SYMATTR Value 12V
SYMBOL Opamps\\LT1190 -1168 176 R0
SYMATTR InstName U3
SYMBOL cap -1104 256 R0
SYMATTR InstName C1
SYMATTR Value 50p
SYMBOL res -912 448 R90
WINDOW 0 0 56 VBottom 2
WINDOW 3 32 56 VTop 2
SYMATTR InstName R1
SYMATTR Value 2k
SYMBOL res -976 160 R90
WINDOW 0 0 56 VBottom 2
WINDOW 3 32 56 VTop 2
SYMATTR InstName R2
SYMATTR Value 10
TEXT -1816 -240 Left 2 !.tran 2.1u
TEXT -1816 -392 Left 1 !.inc ZXTD4591E6.lib
TEXT -1816 -360 Left 1 !.inc irf510.lib
TEXT -1816 -408 Left 1 !.inc THS4281.lib
TEXT -1816 -376 Left 1 !.inc LB_W5SM_TRS.lib
TEXT -1816 -304 Left 1 !.params VIN=0
TEXT -1816 -288 Left 1 !.step param VIN LIST 1 2 3 4 5
