Version 4
SHEET 1 1460 980
WIRE -640 -64 -640 -112
WIRE 160 -48 160 -64
WIRE -640 32 -640 16
WIRE -560 32 -640 32
WIRE -528 96 -528 64
WIRE -288 96 -336 96
WIRE 160 96 160 -48
WIRE -816 144 -816 64
WIRE -912 160 -1088 160
WIRE -864 160 -912 160
WIRE -560 160 -560 32
WIRE -528 160 -560 160
WIRE -736 176 -784 176
WIRE -640 176 -640 96
WIRE -640 176 -736 176
WIRE -288 176 -288 96
WIRE -192 176 -288 176
WIRE -128 176 -192 176
WIRE 0 176 -48 176
WIRE 112 176 0 176
WIRE -864 192 -896 192
WIRE -528 192 -560 192
WIRE -192 208 -192 176
WIRE -1392 224 -1392 208
WIRE -1296 224 -1296 208
WIRE -640 224 -640 176
WIRE -816 240 -816 208
WIRE 160 240 160 192
WIRE -288 256 -288 176
WIRE -288 256 -336 256
WIRE -1088 272 -1088 160
WIRE -528 304 -528 256
WIRE -1920 320 -1920 288
WIRE -640 320 -640 288
WIRE -560 320 -560 192
WIRE -560 320 -640 320
WIRE -192 320 -192 288
WIRE -1392 336 -1392 304
WIRE -1296 336 -1296 304
WIRE -640 336 -640 320
WIRE 160 400 160 304
WIRE 160 400 0 400
WIRE -640 448 -640 416
WIRE -416 448 -640 448
WIRE 160 448 160 400
WIRE -896 464 -896 192
WIRE 0 464 0 400
WIRE 0 464 -896 464
WIRE -1088 480 -1088 352
WIRE 160 560 160 528
FLAG 160 560 0
FLAG -1088 480 0
FLAG -1296 336 0
FLAG 160 -48 +V
FLAG -528 64 +V
FLAG -816 64 +V
FLAG -736 176 BIAS
FLAG 0 176 GATE
FLAG 0 400 SENSE
FLAG -288 96 EMITTER
FLAG -1392 336 0
FLAG -1392 208 +V
FLAG -1296 208 -V
FLAG -816 240 -V
FLAG -528 304 -V
FLAG -912 160 IN
FLAG -1920 320 0
FLAG -192 320 0
FLAG -640 -112 +V
FLAG -416 448 -V
SYMBOL nmos 112 96 R0
SYMATTR InstName M1
SYMATTR Value irf510
SYMATTR Prefix X
SYMBOL res 144 432 R0
SYMATTR InstName RSense
SYMATTR Value 0.1
SYMATTR SpiceLine pwr=20
SYMBOL voltage -1088 256 R0
WINDOW 123 0 0 Left 2
WINDOW 39 0 0 Left 2
SYMATTR InstName V1
SYMATTR Value PULSE(-0.01 {VIN} 0.25u 1n 1n 10u)
SYMBOL voltage -1296 208 R0
WINDOW 123 0 0 Left 2
WINDOW 39 0 0 Left 2
SYMATTR InstName V3
SYMATTR Value -1
SYMBOL diode 144 240 R0
SYMATTR InstName D1
SYMATTR Value LB_W5SM-typ_TRS
SYMBOL res -32 160 R90
WINDOW 0 0 56 VBottom 2
WINDOW 3 32 56 VTop 2
SYMATTR InstName R1
SYMATTR Value 10
SYMBOL ZXTD45 -432 176 R0
SYMATTR InstName U2
SYMATTR Value ZXTD4591E6
SYMATTR Prefix X
SYMBOL LMP7707 -800 176 M0
SYMATTR InstName X2
SYMATTR Prefix X
SYMATTR Value LMP7707
SYMBOL voltage -1392 208 R0
WINDOW 123 0 0 Left 2
WINDOW 39 0 0 Left 2
SYMATTR InstName V2
SYMATTR Value 11
SYMBOL voltage -1920 192 R0
WINDOW 123 0 0 Left 2
WINDOW 39 0 0 Left 2
SYMATTR InstName V4
SYMATTR Value SINE(0.05 0.025 1Meg 0 0 0)
SYMBOL res -656 -80 R0
SYMATTR InstName R2
SYMATTR Value 1k
SYMBOL res -656 320 R0
SYMATTR InstName R3
SYMATTR Value 1k
SYMBOL diode -656 32 R0
SYMATTR InstName D2
SYMBOL diode -656 224 R0
SYMATTR InstName D3
SYMBOL res -208 192 R0
SYMATTR InstName R4
SYMATTR Value 10k
TEXT 672 280 Left 1 !;op
TEXT 672 304 Left 2 !.tran 0 15u 0
TEXT 672 152 Left 1 !.inc ZXTD4591E6.lib
TEXT 672 184 Left 1 !.inc irf510.lib
TEXT 672 136 Left 1 !.inc LMP7707.lib
TEXT 672 168 Left 1 !.inc LB_W5SM_TRS.lib
TEXT 672 240 Left 1 !.params VIN=0
TEXT 672 256 Left 1 !.step param VIN LIST 0.01 0.1 0.15
