Version 4
SHEET 1 1572 980
WIRE -768 -480 -944 -480
WIRE -688 -480 -768 -480
WIRE -672 -480 -688 -480
WIRE -352 -480 -384 -480
WIRE -256 -480 -352 -480
WIRE -160 -480 -256 -480
WIRE -768 -464 -768 -480
WIRE -256 -464 -256 -480
WIRE -944 -400 -944 -480
WIRE -688 -384 -688 -480
WIRE -672 -384 -688 -384
WIRE -352 -384 -352 -400
WIRE -352 -384 -384 -384
WIRE -768 -368 -768 -400
WIRE -352 -368 -352 -384
WIRE -256 -368 -256 -400
WIRE -944 -288 -944 -320
WIRE -528 -288 -528 -320
WIRE -352 -272 -352 -288
WIRE -688 -64 -1184 -64
WIRE -528 -64 -688 -64
WIRE -464 -64 -528 -64
WIRE -1408 -48 -1408 -64
WIRE 160 -48 160 -64
WIRE -688 -32 -688 -64
WIRE -1408 64 -1408 32
WIRE -880 96 -912 96
WIRE -688 96 -688 48
WIRE -560 96 -688 96
WIRE -528 96 -528 -64
WIRE -304 96 -336 96
WIRE -160 96 -224 96
WIRE 160 96 160 -48
WIRE -1184 144 -1184 -64
WIRE -1856 160 -1856 144
WIRE -1280 160 -1856 160
WIRE -1232 160 -1280 160
WIRE -880 160 -912 160
WIRE -560 160 -560 96
WIRE -528 160 -560 160
WIRE -1056 176 -1152 176
WIRE -976 176 -1056 176
WIRE -912 176 -912 160
WIRE -912 176 -976 176
WIRE -160 176 -160 96
WIRE -96 176 -160 176
WIRE 80 176 -96 176
WIRE 112 176 80 176
WIRE -1232 192 -1296 192
WIRE -912 192 -912 176
WIRE -880 192 -912 192
WIRE -528 192 -560 192
WIRE -96 208 -96 176
WIRE 160 240 160 192
WIRE -976 256 -976 176
WIRE -880 256 -912 256
WIRE -560 256 -560 192
WIRE -560 256 -688 256
WIRE -304 256 -336 256
WIRE -160 256 -160 176
WIRE -160 256 -224 256
WIRE -1856 272 -1856 160
WIRE -688 304 -688 256
WIRE -96 320 -96 288
WIRE -976 368 -976 336
WIRE 160 400 160 304
WIRE 160 400 0 400
WIRE -1184 416 -1184 208
WIRE -688 416 -688 384
WIRE -688 416 -1184 416
WIRE -528 416 -528 256
WIRE -528 416 -688 416
WIRE -464 416 -528 416
WIRE 160 448 160 400
WIRE -1296 464 -1296 192
WIRE 0 464 0 400
WIRE 0 464 -1296 464
WIRE -1856 480 -1856 352
WIRE 160 560 160 528
FLAG 160 560 0
FLAG -1856 480 0
FLAG -1408 64 0
FLAG 160 -48 +V
FLAG -464 -64 +V
FLAG -1056 176 BIAS
FLAG 80 176 GATE
FLAG 0 400 SENSE
FLAG -944 -288 0
FLAG -1408 -64 -V
FLAG -464 416 -V
FLAG -1280 160 IN
FLAG -1648 592 0
FLAG -96 320 0
FLAG -912 96 -V
FLAG -912 256 +V
FLAG -1040 592 0
FLAG -528 -288 0
FLAG -256 -368 0
FLAG -352 -272 0
FLAG -768 -368 0
FLAG -160 -480 +V
FLAG -976 368 0
SYMBOL nmos 112 96 R0
SYMATTR InstName M1
SYMATTR Value irf510
SYMATTR Prefix X
SYMBOL res 144 432 R0
SYMATTR InstName RSense
SYMATTR Value 1
SYMATTR SpiceLine pwr=20
SYMBOL voltage -1856 256 R0
WINDOW 123 0 0 Left 2
WINDOW 39 0 0 Left 2
SYMATTR InstName V1
SYMATTR Value PULSE(0 {VIN} 1u 1n 1n 5u)
SYMBOL voltage -1408 -64 R0
WINDOW 123 0 0 Left 2
WINDOW 39 24 44 Left 2
SYMATTR SpiceLine Rser=0.1
SYMATTR InstName V3
SYMATTR Value -1.25
SYMBOL diode 144 240 R0
SYMATTR InstName D1
SYMATTR Value LB_W5SM-typ_TRS
SYMBOL ZXTD45 -432 176 R0
SYMATTR InstName U2
SYMATTR Value ZXTD4591E6
SYMATTR Prefix X
SYMBOL LMP7707 -1168 176 M0
SYMATTR InstName X2
SYMATTR Prefix X
SYMATTR Value THS4281
SYMBOL voltage -944 -416 R0
WINDOW 123 0 0 Left 2
WINDOW 39 24 44 Left 2
SYMATTR InstName V2
SYMATTR Value 15
SYMBOL voltage -1040 496 R0
WINDOW 123 24 124 Left 2
WINDOW 39 0 0 Left 2
SYMATTR Value2 AC 1
SYMATTR InstName V4
SYMATTR Value SINE(0.125 0.025 1Meg 0 0 0)
SYMBOL res -992 240 R0
SYMATTR InstName R3
SYMATTR Value 2.2k
SYMBOL res -112 192 R0
SYMATTR InstName R4
SYMATTR Value 10k
SYMBOL ZXTD45 -784 176 M180
SYMATTR InstName U1
SYMATTR Value ZXTD4591E6
SYMATTR Prefix X
SYMBOL res -704 -48 R0
SYMATTR InstName R5
SYMATTR Value 2.2k
SYMBOL res -704 288 R0
SYMATTR InstName R6
SYMATTR Value 2.2k
SYMBOL res -208 240 R90
WINDOW 0 0 56 VBottom 2
WINDOW 3 32 56 VTop 2
SYMATTR InstName R7
SYMATTR Value 0.5
SYMBOL res -208 80 R90
WINDOW 0 0 56 VBottom 2
WINDOW 3 32 56 VTop 2
SYMATTR InstName R8
SYMATTR Value 0.5
SYMBOL voltage -1648 496 R0
WINDOW 123 0 0 Left 2
WINDOW 39 0 0 Left 2
WINDOW 3 24 44 Left 2
SYMATTR Value 0.4
SYMATTR InstName V5
SYMBOL cap -272 -464 R0
WINDOW 0 41 31 Left 2
SYMATTR InstName C1
SYMATTR Value 10µ
SYMBOL res -368 -496 R0
SYMATTR InstName R2
SYMATTR Value 37.06k
SYMBOL res -368 -384 R0
SYMATTR InstName R9
SYMATTR Value 4.0k
SYMBOL cap -784 -464 R0
SYMATTR InstName C2
SYMATTR Value 1µ
SYMBOL PowerProducts\\LT1963A -528 -432 R0
SYMATTR InstName U3
TEXT -1816 -240 Left 2 !.tran 8u
TEXT -1816 -392 Left 1 !.inc ZXTD4591E6.lib
TEXT -1816 -360 Left 1 !.inc irf510.lib
TEXT -1816 -408 Left 1 !.inc THS4281.lib
TEXT -1816 -376 Left 1 !.inc LB_W5SM_TRS.lib
TEXT -1816 -304 Left 1 !.params VIN=0
TEXT -1816 -288 Left 1 !.step param VIN LIST 0.1 0.5 1 1.5
TEXT -1816 -208 Left 2 !;MEASURE TRAN tdlay TRIG i(Rsense)  VAL = 0.01 RISE = 1 TD=0.25u
