Version 4
SHEET 1 1324 680
WIRE 928 -320 512 -320
WIRE -96 -256 -368 -256
WIRE 288 -256 192 -256
WIRE 432 -256 352 -256
WIRE 592 -256 432 -256
WIRE 928 -256 928 -320
WIRE 928 -256 880 -256
WIRE 1040 -256 928 -256
WIRE 1216 -256 1040 -256
WIRE 1280 -256 1216 -256
WIRE -368 -240 -368 -256
WIRE 432 -240 432 -256
WIRE 512 -240 512 -320
WIRE 1040 -240 1040 -256
WIRE 1216 -240 1216 -256
WIRE 512 -160 512 -176
WIRE 592 -160 512 -160
WIRE 928 -160 928 -256
WIRE 928 -160 880 -160
WIRE 432 -144 432 -176
WIRE 1040 -144 1040 -176
WIRE 1216 -144 1216 -160
WIRE -368 -128 -368 -160
WIRE 736 -80 736 -96
FLAG -368 -128 0
FLAG 1280 -256 -V
FLAG 736 -80 0
FLAG 432 -144 0
FLAG 1040 -144 0
FLAG 1216 -144 0
SYMBOL voltage -368 -256 R0
WINDOW 123 0 0 Left 2
WINDOW 39 24 44 Left 2
SYMATTR SpiceLine Rser=0
SYMATTR InstName V2
SYMATTR Value 5
SYMBOL lt1611_inverter_block 48 -256 R0
SYMATTR InstName X3
SYMBOL PowerProducts\\LT1964-BYP 736 -208 R0
WINDOW 3 -65 49 Left 2
WINDOW 0 0 -52 Center 2
SYMATTR InstName U1
SYMBOL cap 496 -240 R0
WINDOW 0 41 9 Left 2
WINDOW 3 27 51 Left 2
SYMATTR InstName C1
SYMATTR Value .01µ
SYMBOL cap 416 -240 R0
WINDOW 0 38 9 Left 2
WINDOW 3 33 56 Left 2
SYMATTR InstName C2
SYMATTR Value 1µ
SYMBOL cap 1024 -240 R0
WINDOW 0 41 35 Left 2
WINDOW 3 39 63 Left 2
SYMATTR InstName C3
SYMATTR Value 10µ
SYMBOL res 1200 -256 R0
SYMATTR InstName R1
SYMATTR Value 100
SYMBOL FerriteBead 320 -256 R90
WINDOW 0 -16 0 VBottom 2
SYMATTR InstName L1
SYMATTR Value 1.895µ
SYMATTR SpiceLine Ipk=3 Rser=0.05 Rpar=1616 Cpar=3.6p mfg="Wurth Elektronik" pn="742 792 515"
TEXT 816 -328 Bottom 2 ;LT1964 - 200mA, Low Noise, Low Dropout Negative µPower Regulator\nInput: -5V     Output: -1.22V @ 100mA
TEXT -402 -56 Left 2 !.tran 2
